_symmetry_Int_Tables_number 12
_cell_length_a    4.2624856597999239
_cell_length_b    3.0000000000000000
_cell_length_c    3.0000006666665926
_cell_angle_alpha 90.0000000000000000
_cell_angle_beta  134.6956664078110180
_cell_angle_gamma 90.0000000000000000
_symmetry_Int_Tables_number 12
_chemical_formula_sum
'Cu '
loop_
_atom_site_label
_atom_site_type_symbol
_atom_site_site_symmetry_multiplicity
_atom_site_occupancy wyckoff
_atom_site_fract_x
_atom_site_fract_y
_atom_site_fract_z
Cu1 Cu    2 a  0.0000000000000000  0.0000000000000000  0.0000000000000000
#End
